.dump/converted/Master.dss
Clear

New Circuit.150 Bus1=150.1.2.3 BasekV=4.159877764 pu=1.0 Angle=0.0 Phases=3 Z1=[0.001, 0.001] Z0=[0.001, 0.001] Enabled=True
redirect WireData.dss
redirect LineCodes.dss
redirect SwitchCodes.dss
redirect Transformers.dss
redirect Capacitors.dss
redirect Lines.dss
redirect Loads.dss
redirect Switches.dss
redirect RegControllers.dss
New EnergyMeter.SourceMeter element=Line.150-149
Set Voltagebases=[0.48, 4.159877764]
calcv
Solve
redirect BusCoords.dss
