.dump/converted/Lines.dss
new Line.101-105 Bus1=101.1.2.3 Bus2=105.1.2.3 Length=0.025548335999999998 Phases=3 Geometry=CONFIG_3_101_105 Units=km
new Line.81-84 Bus1=81.3 Bus2=84.3 Length=0.062709552 Phases=1 Geometry=CONFIG_11_81_84 Units=km
new Line.74-75 Bus1=74.3 Bus2=75.3 Length=0.037161216 Phases=1 Geometry=CONFIG_11_74_75 Units=km
new Line.160-67 Bus1=160.1.2.3 Bus2=67.1.2.3 Length=0.032516123435999994 Phases=3 Geometry=CONFIG_6_160_67 Units=km
new Line.50-51 Bus1=50.1.2.3 Bus2=51.1.2.3 Length=0.023225759999999998 Phases=3 Geometry=CONFIG_4_50_51 Units=km
new Line.135-35 Bus1=135.1.2.3 Bus2=35.1.2.3 Length=0.03483864 Phases=3 Geometry=CONFIG_4_135_35 Units=km
new Line.69-70 Bus1=69.1 Bus2=70.1 Length=0.030193487999999997 Phases=1 Geometry=CONFIG_9_69_70 Units=km
new Line.36-37 Bus1=36.1 Bus2=37.1 Length=0.027870911999999998 Phases=1 Geometry=CONFIG_9_36_37 Units=km
new Line.95-96 Bus1=95.2 Bus2=96.2 Length=0.018580608 Phases=1 Geometry=CONFIG_10_95_96 Units=km
new Line.72-73 Bus1=72.3 Bus2=73.3 Length=0.025548335999999998 Phases=1 Geometry=CONFIG_11_72_73 Units=km
new Line.86-87 Bus1=86.1.2.3 Bus2=87.1.2.3 Length=0.041806368 Phases=3 Geometry=CONFIG_6_86_87 Units=km
new Line.81-82 Bus1=81.1.2.3 Bus2=82.1.2.3 Length=0.023225759999999998 Phases=3 Geometry=CONFIG_6_81_82 Units=km
new Line.54-57 Bus1=54.1.2.3 Bus2=57.1.2.3 Length=0.032516064 Phases=3 Geometry=CONFIG_3_54_57 Units=km
new Line.76-86 Bus1=76.1.2.3 Bus2=86.1.2.3 Length=0.065032128 Phases=3 Geometry=CONFIG_3_76-86 Units=km
new Line.149-1 Bus1=149.1.2.3 Bus2=1.1.2.3 Length=0.037161216 Phases=3 Geometry=CONFIG_1_149_1 Units=km
new Line.26-31 Bus1=26.3 Bus2=31.3 Length=0.020903184 Phases=1 Geometry=CONFIG_11_26_31 Units=km
new Line.45-46 Bus1=45.1 Bus2=46.1 Length=0.027870911999999998 Phases=1 Geometry=CONFIG_9_45_46 Units=km
new Line.78-80 Bus1=78.1.2.3 Bus2=80.1.2.3 Length=0.044128943999999996 Phases=3 Geometry=CONFIG_6_78_80 Units=km
new Line.52-53 Bus1=52.1.2.3 Bus2=53.1.2.3 Length=0.018580608 Phases=3 Geometry=CONFIG_1_52_53 Units=km
new Line.21-22 Bus1=21.2 Bus2=22.2 Length=0.048774096 Phases=1 Geometry=CONFIG_10_21_22 Units=km
new Line.67-97 Bus1=67.1.2.3 Bus2=97.1.2.3 Length=0.023225759999999998 Phases=3 Geometry=CONFIG_3_67_97 Units=km
new Line.7-8 Bus1=7.1.2.3 Bus2=8.1.2.3 Length=0.018580608 Phases=3 Geometry=CONFIG_1_7_8 Units=km
new Line.110-111 Bus1=110.1 Bus2=111.1 Length=0.053419247999999996 Phases=1 Geometry=CONFIG_9_110_111 Units=km
new Line.54-55 Bus1=54.1.2.3 Bus2=55.1.2.3 Length=0.025548335999999998 Phases=3 Geometry=CONFIG_1_54_55 Units=km
new Line.77-78 Bus1=77.1.2.3 Bus2=78.1.2.3 Length=0.009290304 Phases=3 Geometry=CONFIG_6_77_78 Units=km
new Line.8-13 Bus1=8.1.2.3 Bus2=13.1.2.3 Length=0.027870911999999998 Phases=3 Geometry=CONFIG_1_8_13 Units=km
new Line.1-2 Bus1=1.2 Bus2=2.2 Length=0.016258032 Phases=1 Geometry=CONFIG_10_1_2 Units=km
new Line.3-5 Bus1=203.3 Bus2=5.3 Length=0.030193487999999997 Phases=1 Geometry=CONFIG_11_3_5 Units=km
new Line.9-14 Bus1=9.1 Bus2=14.1 Length=0.039483792 Phases=1 Geometry=CONFIG_9_9_14 Units=km
new Line.14-11 Bus1=14.1 Bus2=11.1 Length=0.023225759999999998 Phases=1 Geometry=CONFIG_9_14_11 Units=km
new Line.15-16 Bus1=15.3 Bus2=16.3 Length=0.03483864 Phases=1 Geometry=CONFIG_11_15_16 Units=km
new Line.93-94 Bus1=94.1 Bus2=93.1 Length=0.025548335999999998 Phases=1 Geometry=CONFIG_9_93_94 Units=km
new Line.51-151 Bus1=51.1.2.3 Bus2=151.1.2.3 Length=0.0180739484088 Phases=3 Geometry=CONFIG__51_151 Units=km
new Line.13-18 Bus1=13.1.2.3 Bus2=18.1.2.3 Length=0.076645008 Phases=3 Geometry=CONFIG_2_13_18 Units=km
new Line.91-92 Bus1=91.3 Bus2=92.3 Length=0.027870822693599997 Phases=1 Geometry=CONFIG_11_91_92 Units=km
new Line.47-49 Bus1=47.1.2.3 Bus2=49.1.2.3 Length=0.023225759999999998 Phases=3 Geometry=CONFIG_4_47_49 Units=km
new Line.35-36 Bus1=35.1.2 Bus2=36.1.2 Length=0.060386975999999995 Phases=2 Geometry=CONFIG_8_35_36 Units=km
new Line.89-91 Bus1=89.1.2.3 Bus2=91.1.2.3 Length=0.020903184 Phases=3 Geometry=CONFIG_6_89_91 Units=km
new Line.34-15 Bus1=34.3 Bus2=15.3 Length=0.009290304 Phases=1 Geometry=CONFIG_11_34_15 Units=km
new Line.103-104 Bus1=103.3 Bus2=104.3 Length=0.065032128 Phases=1 Geometry=CONFIG_11_103_104 Units=km
new Line.108-300 Bus1=108.1.2.3 Bus2=300.1.2.3 Length=0.09290303999999999 Phases=3 Geometry=CONFIG_3_108_300 Units=km
new Line.28-29 Bus1=28.1.2.3 Bus2=29.1.2.3 Length=0.027870911999999998 Phases=3 Geometry=CONFIG_2_28_29 Units=km
new Line.35-40 Bus1=35.1.2.3 Bus2=40.1.2.3 Length=0.023225759999999998 Phases=3 Geometry=CONFIG_1_35_40 Units=km
new Line.49-50 Bus1=49.1.2.3 Bus2=50.1.2.3 Length=0.023225759999999998 Phases=3 Geometry=CONFIG_4_49_50 Units=km
new Line.72-76 Bus1=72.1.2.3 Bus2=76.1.2.3 Length=0.018580608 Phases=3 Geometry=CONFIG_3_72_76 Units=km
new Line.105-106 Bus1=105.2 Bus2=106.2 Length=0.020903184 Phases=1 Geometry=CONFIG_10_105_106 Units=km
new Line.23-25 Bus1=23.1.2.3 Bus2=25.1.2.3 Length=0.025548335999999998 Phases=3 Geometry=CONFIG_2_23_25 Units=km
new Line.40-42 Bus1=40.1.2.3 Bus2=42.1.2.3 Length=0.023225759999999998 Phases=3 Geometry=CONFIG_1_40_42 Units=km
new Line.102-103 Bus1=102.3 Bus2=103.3 Length=0.030193487999999997 Phases=1 Geometry=CONFIG_11_102_103 Units=km
new Line.106-107 Bus1=106.2 Bus2=107.2 Length=0.053419247999999996 Phases=1 Geometry=CONFIG_10_106_107 Units=km
new Line.87-89 Bus1=87.1.2.3 Bus2=89.1.2.3 Length=0.025548335999999998 Phases=3 Geometry=CONFIG_6_87_89 Units=km
new Line.73-74 Bus1=73.3 Bus2=74.3 Length=0.032516064 Phases=1 Geometry=CONFIG_11_73_74 Units=km
new Line.78-79 Bus1=78.1.2.3 Bus2=79.1.2.3 Length=0.020903184 Phases=3 Geometry=CONFIG_6_78_79 Units=km
new Line.5-6 Bus1=5.3 Bus2=6.3 Length=0.023225759999999998 Phases=1 Geometry=CONFIG_11_5_6 Units=km
new Line.58-59 Bus1=58.2 Bus2=59.2 Length=0.023225759999999998 Phases=1 Geometry=CONFIG_10_58_59 Units=km
new Line.31-32 Bus1=31.3 Bus2=32.3 Length=0.027870911999999998 Phases=1 Geometry=CONFIG_11_31_32 Units=km
new Line.57-60 Bus1=57.1.2.3 Bus2=60.1.2.3 Length=0.06967728 Phases=3 Geometry=CONFIG_3_57_60 Units=km
new Line.57-58 Bus1=57.2 Bus2=58.2 Length=0.023225759999999998 Phases=1 Geometry=CONFIG_10_57_58 Units=km
new Line.110-112 Bus1=110.1 Bus2=112.1 Length=0.011612879999999999 Phases=1 Geometry=CONFIG_9_110_112 Units=km
new Line.67-72 Bus1=67.1.2.3 Bus2=72.1.2.3 Length=0.025548335999999998 Phases=3 Geometry=CONFIG_3_67_72 Units=km
new Line.42-44 Bus1=42.1.2.3 Bus2=44.1.2.3 Length=0.018580608 Phases=3 Geometry=CONFIG_1_42_44 Units=km
new Line.99-100 Bus1=99.1.2.3 Bus2=100.1.2.3 Length=0.027870911999999998 Phases=3 Geometry=CONFIG_3_99_100 Units=km
new Line.30-250 Bus1=30.1.2.3 Bus2=250.1.2.3 Length=0.018580608 Phases=3 Geometry=CONFIG_2_30_250 Units=km
new Line.100-450 Bus1=100.1.2.3 Bus2=450.1.2.3 Length=0.074322432 Phases=3 Geometry=CONFIG_3_100_450 Units=km
new Line.25-28 Bus1=25.1.2.3 Bus2=28.1.2.3 Length=0.018580608 Phases=3 Geometry=CONFIG_2_25_28 Units=km
new Line.18-21 Bus1=18.1.2.3 Bus2=21.1.2.3 Length=0.027870911999999998 Phases=3 Geometry=CONFIG_2_18_21 Units=km
new Line.36-38 Bus1=36.2 Bus2=38.2 Length=0.023225759999999998 Phases=1 Geometry=CONFIG_10_36_38 Units=km
new Line.101-102 Bus1=101.3 Bus2=102.3 Length=0.020903184 Phases=1 Geometry=CONFIG_11_101_102 Units=km
new Line.21-23 Bus1=21.1.2.3 Bus2=23.1.2.3 Length=0.023225759999999998 Phases=3 Geometry=CONFIG_2_21_23 Units=km
new Line.67-68 Bus1=67.1 Bus2=68.1 Length=0.018580608 Phases=1 Geometry=CONFIG_9_67_68 Units=km
new Line.82-83 Bus1=82.1.2.3 Bus2=83.1.2.3 Length=0.023225522255999997 Phases=3 Geometry=CONFIG_6_82_83 Units=km
new Line.109-110 Bus1=109.1 Bus2=110.1 Length=0.027870911999999998 Phases=1 Geometry=CONFIG_9_109_110 Units=km
new Line.105-108 Bus1=105.1.2.3 Bus2=108.1.2.3 Length=0.030193487999999997 Phases=3 Geometry=CONFIG_3_105_108 Units=km
new Line.112-113 Bus1=112.1 Bus2=113.1 Length=0.048774096 Phases=1 Geometry=CONFIG_9_112_113 Units=km
new Line.98-99 Bus1=98.1.2.3 Bus2=99.1.2.3 Length=0.051096671999999996 Phases=3 Geometry=CONFIG_3_98_99 Units=km
new Line.68-69 Bus1=68.1 Bus2=69.1 Length=0.025548335999999998 Phases=1 Geometry=CONFIG_9_68_69 Units=km
new Line.152-52 Bus1=152.1.2.3 Bus2=52.1.2.3 Length=0.037161216 Phases=3 Geometry=CONFIG_1_152_52 Units=km
new Line.70-71 Bus1=70.1 Bus2=71.1 Length=0.025548335999999998 Phases=1 Geometry=CONFIG_9_70_71 Units=km
new Line.25-26 Bus1=25.1.3 Bus2=26.1.3 Length=0.032516064 Phases=2 Geometry=CONFIG_7_25_26 Units=km
new Line.1-3 Bus1=1.3 Bus2=203.3 Length=0.023225759999999998 Phases=1 Geometry=CONFIG_11_1_3 Units=km
new Line.44-45 Bus1=44.1 Bus2=45.1 Length=0.018580608 Phases=1 Geometry=CONFIG_9_44_45 Units=km
new Line.14-10 Bus1=14.1 Bus2=10.1 Length=0.023225759999999998 Phases=1 Geometry=CONFIG_9_14_10 Units=km
new Line.15-17 Bus1=15.3 Bus2=17.3 Length=0.032516064 Phases=1 Geometry=CONFIG_11_15_17 Units=km
new Line.8-9 Bus1=8.1 Bus2=9.1 Length=0.020903184 Phases=1 Geometry=CONFIG_9__8_9 Units=km
new Line.18-19 Bus1=18.1 Bus2=19.1 Length=0.023225759999999998 Phases=1 Geometry=CONFIG_9_18_19 Units=km
new Line.55-56 Bus1=55.1.2.3 Bus2=56.1.2.3 Length=0.025548335999999998 Phases=3 Geometry=CONFIG_1_55_56 Units=km
new Line.13-34 Bus1=13.3 Bus2=34.3 Length=0.013935455999999999 Phases=1 Geometry=CONFIG_11_13_34 Units=km
new Line.53-54 Bus1=53.1.2.3 Bus2=54.1.2.3 Length=0.011612879999999999 Phases=3 Geometry=CONFIG_1_53_54 Units=km
new Line.108-109 Bus1=108.1 Bus2=109.1 Length=0.041806368 Phases=1 Geometry=CONFIG_9_108_109 Units=km
new Line.8-12 Bus1=8.2 Bus2=12.2 Length=0.020903184 Phases=1 Geometry=CONFIG_10_8_12 Units=km
new Line.19-20 Bus1=19.1 Bus2=20.1 Length=0.030193487999999997 Phases=1 Geometry=CONFIG_9_19_20 Units=km
new Line.93-95 Bus1=93.1.2.3 Bus2=95.1.2.3 Length=0.027870911999999998 Phases=3 Geometry=CONFIG_6_93_95 Units=km
new Line.3-4 Bus1=203.3 Bus2=4.3 Length=0.018580608 Phases=1 Geometry=CONFIG_11_3_4 Units=km
new Line.38-39 Bus1=38.2 Bus2=39.2 Length=0.030193487999999997 Phases=1 Geometry=CONFIG_10_38_39 Units=km
new Line.44-47 Bus1=44.1.2.3 Bus2=47.1.2.3 Length=0.023225759999999998 Phases=3 Geometry=CONFIG_1_44_47 Units=km
new Line.80-81 Bus1=80.1.2.3 Bus2=81.1.2.3 Length=0.044128943999999996 Phases=3 Geometry=CONFIG_6_80_81 Units=km
new Line.91-93 Bus1=91.1.2.3 Bus2=93.1.2.3 Length=0.020903184 Phases=3 Geometry=CONFIG_6_91_93 Units=km
new Line.197-101 Bus1=197.1.2.3 Bus2=101.1.2.3 Length=0.023225759999999998 Phases=3 Geometry=CONFIG_3_197_101 Units=km
new Line.89-90 Bus1=89.2 Bus2=90.2 Length=0.020903362308 Phases=1 Geometry=CONFIG_10_89_90 Units=km
new Line.1-7 Bus1=1.1.2.3 Bus2=7.1.2.3 Length=0.027870911999999998 Phases=3 Geometry=CONFIG_1_1_7 Units=km
new Line.29-30 Bus1=29.1.2.3 Bus2=30.1.2.3 Length=0.032516064 Phases=3 Geometry=CONFIG_2_29_30 Units=km
new Line.84-85 Bus1=84.3 Bus2=85.3 Length=0.044128943999999996 Phases=1 Geometry=CONFIG_11_84_85 Units=km
new Line.47-48 Bus1=47.1.2.3 Bus2=48.1.2.3 Length=0.013935455999999999 Phases=3 Geometry=CONFIG_4_47_48 Units=km
new Line.42-43 Bus1=42.2 Bus2=43.2 Length=0.046451519999999996 Phases=1 Geometry=CONFIG_10_42_43 Units=km
new Line.60-61 Bus1=60.1.2.3 Bus2=61.1.2.3 Length=0.051096671999999996 Phases=3 Geometry=CONFIG_5_60_61 Units=km
new Line.40-41 Bus1=40.3 Bus2=41.3 Length=0.030193487999999997 Phases=1 Geometry=CONFIG_11_40_41 Units=km
new Line.97-98 Bus1=97.1.2.3 Bus2=98.1.2.3 Length=0.025548335999999998 Phases=3 Geometry=CONFIG_3_97_98 Units=km
new Line.113-114 Bus1=113.1 Bus2=114.1 Length=0.030193487999999997 Phases=1 Geometry=CONFIG_9_113_114 Units=km
new Line.23-24 Bus1=23.3 Bus2=24.3 Length=0.051096671999999996 Phases=1 Geometry=CONFIG_11_23_24 Units=km
new Line.87-88 Bus1=87.1 Bus2=88.1 Length=0.0162580618704 Phases=1 Geometry=CONFIG_9_87_88 Units=km
new Line.76-77 Bus1=76.1.2.3 Bus2=77.1.2.3 Length=0.037161216 Phases=3 Geometry=CONFIG_6_76_77 Units=km
new Line.26-27 Bus1=26.1.3 Bus2=27.1.3 Length=0.025548335999999998 Phases=2 Geometry=CONFIG_7_26_27 Units=km
new Line.27-33 Bus1=27.1 Bus2=33.1 Length=0.046451519999999996 Phases=1 Geometry=CONFIG_9_27_33 Units=km
new Line.F47 Bus1=47.1.2.3 Bus2=F47.1.2.3 LineCode=F47 Length=0.001 Phases=3 Units=km
new Line.63-64 Bus1=63.1.2.3 Bus2=64.1.2.3 LineCode=63-64 Length=0.001 Phases=3 Units=km
new Line.F51 Bus1=51.1.2.3 Bus2=F51.1.2.3 LineCode=F51 Length=0.001 Phases=3 Units=km
new Line.F10 Bus1=10.1 Bus2=F10.1 LineCode=F10 Length=0.001 Phases=1 Units=km
new Line.F103 Bus1=103.3 Bus2=F103.3 LineCode=F103 Length=0.001 Phases=1 Units=km
new Line.F33 Bus1=33.1 Bus2=F33.1 LineCode=F33 Length=0.001 Phases=1 Units=km
new Line.F48 Bus1=48.1.2.3 Bus2=F48.1.2.3 LineCode=F48 Length=0.001 Phases=3 Units=km
new Line.F82 Bus1=82.1.2.3 Bus2=F82.1.2.3 LineCode=F82 Length=0.001 Phases=3 Units=km
new Line.F96 Bus1=96.2 Bus2=F96.2 LineCode=F96 Length=0.001 Phases=1 Units=km
new Line.F45 Bus1=45.1 Bus2=F45.1 LineCode=F45 Length=0.001 Phases=1 Units=km
new Line.F69 Bus1=69.1 Bus2=F69.1 LineCode=F69 Length=0.001 Phases=1 Units=km
new Line.F53 Bus1=53.1.2.3 Bus2=F53.1.2.3 LineCode=F53 Length=0.001 Phases=3 Units=km
new Line.F73 Bus1=73.3 Bus2=F73.3 LineCode=F73 Length=0.001 Phases=1 Units=km
new Line.F12 Bus1=12.2 Bus2=F12.2 LineCode=F12 Length=0.001 Phases=1 Units=km
new Line.F112 Bus1=112.1 Bus2=F112.1 LineCode=F112 Length=0.001 Phases=1 Units=km
new Line.F31 Bus1=31.3 Bus2=F31.3 LineCode=F31 Length=0.001 Phases=1 Units=km
new Line.F80 Bus1=80.1.2.3 Bus2=F80.1.2.3 LineCode=F80 Length=0.001 Phases=3 Units=km
new Line.F98 Bus1=98.1.2.3 Bus2=F98.1.2.3 LineCode=F98 Length=0.001 Phases=3 Units=km
new Line.F43 Bus1=43.2 Bus2=F43.2 LineCode=F43 Length=0.001 Phases=1 Units=km
new Line.F71 Bus1=71.1 Bus2=F71.1 LineCode=F71 Length=0.001 Phases=1 Units=km
new Line.F107 Bus1=107.2 Bus2=F107.2 LineCode=F107 Length=0.001 Phases=1 Units=km
new Line.F20 Bus1=20.1 Bus2=F20.1 LineCode=F20 Length=0.001 Phases=1 Units=km
new Line.F86 Bus1=86.1.2.3 Bus2=F86.1.2.3 LineCode=F86 Length=0.001 Phases=3 Units=km
new Line.F1 Bus1=1.1.2.3 Bus2=F1.1.2.3 LineCode=F1 Length=0.001 Phases=3 Units=km
new Line.F41 Bus1=41.3 Bus2=F41.3 LineCode=F41 Length=0.001 Phases=1 Units=km
new Line.F65 Bus1=65.1.2.3 Bus2=F65.1.2.3 LineCode=F65 Length=0.001 Phases=3 Units=km
new Line.F77 Bus1=77.1.2.3 Bus2=F77.1.2.3 LineCode=F77 Length=0.001 Phases=3 Units=km
new Line.F16 Bus1=16.3 Bus2=F16.3 LineCode=F16 Length=0.001 Phases=1 Units=km
new Line.F19 Bus1=19.1 Bus2=F19.1 LineCode=F19 Length=0.001 Phases=1 Units=km
new Line.F22 Bus1=22.2 Bus2=F22.2 LineCode=F22 Length=0.001 Phases=1 Units=km
new Line.F84 Bus1=84.3 Bus2=F84.3 LineCode=F84 Length=0.001 Phases=1 Units=km
new Line.F38 Bus1=38.2 Bus2=F38.2 LineCode=F38 Length=0.001 Phases=1 Units=km
new Line.F59 Bus1=59.2 Bus2=F59.2 LineCode=F59 Length=0.001 Phases=1 Units=km
new Line.F75 Bus1=75.3 Bus2=F75.3 LineCode=F75 Length=0.001 Phases=1 Units=km
new Line.F114 Bus1=114.1 Bus2=F114.1 LineCode=F114 Length=0.001 Phases=1 Units=km
new Line.F24 Bus1=24.3 Bus2=F24.3 LineCode=F24 Length=0.001 Phases=1 Units=km
new Line.F5 Bus1=5.3 Bus2=F5.3 LineCode=F5 Length=0.001 Phases=1 Units=km
new Line.60-62 Bus1=60.1.2.3 Bus2=62.1.2.3 LineCode=60-62 Length=0.001 Phases=3 Units=km
new Line.F56 Bus1=56.1.2.3 Bus2=F56.1.2.3 LineCode=F56 Length=0.001 Phases=3 Units=km
new Line.F88 Bus1=88.1 Bus2=F88.1 LineCode=F88 Length=0.001 Phases=1 Units=km
new Line.F7 Bus1=7.1.2.3 Bus2=F7.1.2.3 LineCode=F7 Length=0.001 Phases=3 Units=km
new Line.F100 Bus1=100.1.2.3 Bus2=F100.1.2.3 LineCode=F100 Length=0.001 Phases=3 Units=km
new Line.F34 Bus1=34.3 Bus2=F34.3 LineCode=F34 Length=0.001 Phases=1 Units=km
new Line.F63 Bus1=63.1.2.3 Bus2=F63.1.2.3 LineCode=F63 Length=0.001 Phases=3 Units=km
new Line.F50 Bus1=50.1.2.3 Bus2=F50.1.2.3 LineCode=F50 Length=0.001 Phases=3 Units=km
new Line.F28 Bus1=28.1.2.3 Bus2=F28.1.2.3 LineCode=F28 Length=0.001 Phases=3 Units=km
new Line.F102 Bus1=102.3 Bus2=F102.3 LineCode=F102 Length=0.001 Phases=1 Units=km
new Line.F32 Bus1=32.3 Bus2=F32.3 LineCode=F32 Length=0.001 Phases=1 Units=km
new Line.F49 Bus1=49.1.2.3 Bus2=F49.1.2.3 LineCode=F49 Length=0.001 Phases=3 Units=km
new Line.F83 Bus1=83.1.2.3 Bus2=F83.1.2.3 LineCode=F83 Length=0.001 Phases=3 Units=km
new Line.F95 Bus1=95.1.2.3 Bus2=F95.1.2.3 LineCode=F95 Length=0.001 Phases=3 Units=km
new Line.F46 Bus1=46.1 Bus2=F46.1 LineCode=F46 Length=0.001 Phases=1 Units=km
new Line.F52 Bus1=52.1.2.3 Bus2=F52.1.2.3 LineCode=F52 Length=0.001 Phases=3 Units=km
new Line.F11 Bus1=11.1 Bus2=F11.1 LineCode=F11 Length=0.001 Phases=1 Units=km
new Line.F104 Bus1=104.3 Bus2=F104.3 LineCode=F104 Length=0.001 Phases=1 Units=km
new Line.F113 Bus1=113.1 Bus2=F113.1 LineCode=F113 Length=0.001 Phases=1 Units=km
new Line.F30 Bus1=30.1.2.3 Bus2=F30.1.2.3 LineCode=F30 Length=0.001 Phases=3 Units=km
new Line.F68 Bus1=68.1 Bus2=F68.1 LineCode=F68 Length=0.001 Phases=1 Units=km
new Line.F70 Bus1=70.1 Bus2=F70.1 LineCode=F70 Length=0.001 Phases=1 Units=km
new Line.F106 Bus1=106.2 Bus2=F106.2 LineCode=F106 Length=0.001 Phases=1 Units=km
new Line.F111 Bus1=111.1 Bus2=F111.1 LineCode=F111 Length=0.001 Phases=1 Units=km
new Line.F87 Bus1=87.1.2.3 Bus2=F87.1.2.3 LineCode=F87 Length=0.001 Phases=3 Units=km
new Line.F99 Bus1=99.1.2.3 Bus2=F99.1.2.3 LineCode=F99 Length=0.001 Phases=3 Units=km
new Line.F109 Bus1=109.1 Bus2=F109.1 LineCode=F109 Length=0.001 Phases=1 Units=km
new Line.F42 Bus1=42.1.2.3 Bus2=F42.1.2.3 LineCode=F42 Length=0.001 Phases=3 Units=km
new Line.F76 Bus1=76.1.2.3 Bus2=F76.1.2.3 LineCode=F76 Length=0.001 Phases=3 Units=km
new Line.F85 Bus1=85.3 Bus2=F85.3 LineCode=F85 Length=0.001 Phases=1 Units=km
new Line.F64 Bus1=64.1.2.3 Bus2=F64.1.2.3 LineCode=F64 Length=0.001 Phases=3 Units=km
new Line.F58 Bus1=58.2 Bus2=F58.2 LineCode=F58 Length=0.001 Phases=1 Units=km
new Line.F74 Bus1=74.3 Bus2=F74.3 LineCode=F74 Length=0.001 Phases=1 Units=km
new Line.F17 Bus1=17.3 Bus2=F17.3 LineCode=F17 Length=0.001 Phases=1 Units=km
new Line.F2 Bus1=2.2 Bus2=233.2 LineCode=F2 Length=0.001 Phases=1 Units=km
new Line.F39 Bus1=39.2 Bus2=F39.2 LineCode=F39 Length=0.001 Phases=1 Units=km
new Line.F66 Bus1=66.1.2.3 Bus2=F66.1.2.3 LineCode=F66 Length=0.001 Phases=3 Units=km
new Line.F90 Bus1=90.2 Bus2=F90.2 LineCode=F90 Length=0.001 Phases=1 Units=km
new Line.F55 Bus1=55.1.2.3 Bus2=F55.1.2.3 LineCode=F55 Length=0.001 Phases=3 Units=km
new Line.F79 Bus1=79.1.2.3 Bus2=F79.1.2.3 LineCode=F79 Length=0.001 Phases=3 Units=km
new Line.65-66 Bus1=65.1.2.3 Bus2=66.1.2.3 LineCode=65-66 Length=0.001 Phases=3 Units=km
new Line.F4 Bus1=4.3 Bus2=234.3 LineCode=F4 Length=0.001 Phases=1 Units=km
new Line.F37 Bus1=37.1 Bus2=F37.1 LineCode=F37 Length=0.001 Phases=1 Units=km
new Line.F60 Bus1=60.1.2.3 Bus2=F60.1.2.3 LineCode=F60 Length=0.001 Phases=3 Units=km
new Line.62-63 Bus1=62.1.2.3 Bus2=63.1.2.3 LineCode=62-63 Length=0.001 Phases=3 Units=km
new Line.64-65 Bus1=64.1.2.3 Bus2=65.1.2.3 LineCode=64-65 Length=0.001 Phases=3 Units=km
new Line.F92 Bus1=92.3 Bus2=F92.3 LineCode=F92 Length=0.001 Phases=1 Units=km
new Line.F9 Bus1=9.1 Bus2=235.1 LineCode=F9 Length=0.001 Phases=1 Units=km
new Line.F29 Bus1=29.1.2.3 Bus2=F29.1.2.3 LineCode=F29 Length=0.001 Phases=3 Units=km
new Line.F6 Bus1=6.3 Bus2=F6.3 LineCode=F6 Length=0.001 Phases=1 Units=km
new Line.F35 Bus1=35.1.2.3 Bus2=F35.1.2.3 LineCode=F35 Length=0.001 Phases=3 Units=km
new Line.F62 Bus1=62.1.2.3 Bus2=F62.1.2.3 LineCode=F62 Length=0.001 Phases=3 Units=km
new Line.F94 Bus1=94.1 Bus2=F94.1 LineCode=F94 Length=0.001 Phases=1 Units=km
