.dump/converted/Switches.dss
new Line.250-251 Switch=True Bus1=250.1.2.3 Bus2=251.1.2.3 LineCode=DEFAULT_3 Length=0.001 Phases=3 Units=km Enabled=True
new Line.95-195 Switch=True Bus1=95.1.2.3 Bus2=228.1.2.3 LineCode=DEFAULT_3 Length=0.001 Phases=3 Units=km Enabled=True
new Line.450-451 Switch=True Bus1=450.1.2.3 Bus2=450-451.1.2.3 LineCode=DEFAULT_3 Length=0.001 Phases=3 Units=km Enabled=True
new Line.151-300 Switch=True Bus1=151.1.2.3 Bus2=300.1.2.3 LineCode=DEFAULT_3 Length=0.001 Phases=3 Units=km Enabled=True
new Line.60-160 Switch=True Bus1=60.1.2.3 Bus2=160.1.2.3 LineCode=DEFAULT_3 Length=0.001 Phases=3 Units=km Enabled=True
new Line.13-152 Switch=True Bus1=13.1.2.3 Bus2=152.1.2.3 LineCode=DEFAULT_3 Length=0.001 Phases=3 Units=km Enabled=True
new Line.97-197 Switch=True Bus1=97.1.2.3 Bus2=197.1.2.3 LineCode=DEFAULT_3 Length=0.001 Phases=3 Units=km Enabled=True
new Line.18-135 Switch=True Bus1=18.1.2.3 Bus2=135.1.2.3 LineCode=DEFAULT_3 Length=0.001 Phases=3 Units=km Enabled=True
new Line.300-350 Switch=True Bus1=300.1.2.3 Bus2=350.1.2.3 LineCode=DEFAULT_3 Length=0.001 Phases=3 Units=km Enabled=True
new Line.54-94 Switch=True Bus1=54.1.2.3 Bus2=94.1.2.3 LineCode=DEFAULT_3 Length=0.001 Phases=3 Units=km Enabled=True
new Line.61-610_0 Switch=True Bus1=61.1.2.3 Bus2=61_primary.1.2.3 LineCode=DEFAULT_3 Length=0.001 Phases=3 Units=km Enabled=True
new Line.150-149_0 Switch=True Bus1=150.1.2.3 Bus2=149_0_4.1.2.3 LineCode=DEFAULT_3 Length=0.001 Phases=3 Units=km Enabled=True
